
Note: No compatibility mode selected!


Circuit: 

Doing analysis at TEMP = 27.000000 and TNOM = 27.000000

Using SPARSE 1.3 as Direct Linear Solver

No. of Data Rows : 331
binary raw file "/foss/designs/simulations/tb_ota_5t/test_dc/results.raw"
Note: Simulation executed from .control section 
